/*--------------------------------*- C++ -*----------------------------------*\
| =========                 |                                                 |
| \\      /  F ield         | OpenFOAM: The Open Source CFD Toolbox           |
|  \\    /   O peration     | Version:  4.x                                   |
|   \\  /    A nd           | Web:      www.OpenFOAM.org                      |
|    \\/     M anipulation  |                                                 |
\*---------------------------------------------------------------------------*/
FoamFile
{
    version     2.0;
    format      ascii;
    class       volScalarField;
    location    "0";
    object      p;
}
// * * * * * * * * * * * * * * * * * * * * * * * * * * * * * * * * * * * * * //

dimensions      [1 -1 -2 0 0 0 0];

internalField   uniform 1e5;

boundaryField
{
    defaultFaces
    {
        type empty; 
    }

    inlet
    {
        type            calculated;
        value           $internalField;
    }

    outlet
    {
        type            calculated;
        value           $internalField;
    }

    sg
    {
        type            calculated;
        value           $internalField;
    }

    shroud
    {
        type            calculated;
        value           $internalField;
    }

    leftWedge
    {
        type wedge; 
    }

    rightWedge
    {
        type wedge; 
    }

    
}


// ************************************************************************* //
