/*--------------------------------*- C++ -*----------------------------------*\
| =========                 |                                                 |
| \\      /  F ield         | OpenFOAM: The Open Source CFD Toolbox           |
|  \\    /   O peration     | Version:  4.x                                   |
|   \\  /    A nd           | Web:      www.OpenFOAM.org                      |
|    \\/     M anipulation  |                                                 |
\*---------------------------------------------------------------------------*/
FoamFile
{
    version     2.0;
    format      ascii;
    class       dictionary;
    object      controlDict;
}
// * * * * * * * * * * * * * * * * * * * * * * * * * * * * * * * * * * * * * //

interv 500; 

application     buoyantSimpleFoam;

// startFrom       startTime;
startFrom 		latestTime; 

startTime       0;

stopAt          endTime;
// stopAt 			writeNow; 

endTime         5000;

deltaT          1;

writeControl    timeStep;

writeInterval   $interv; 

purgeWrite      0;

writeFormat     ascii;

writePrecision  12;

writeCompression off;

timeFormat      general;

timePrecision   6;

runTimeModifiable true;

functions
{
   rhofunc
   {
      type                 writeObjects;
      libs            ("libutilityFunctionObjects.so");
      writeControl        timeStep;
      writeInterval       $interv;
      objects
      ("rho");
   }
}


// ************************************************************************* //
